rawData/test/dss_scripts/PVSystem.dss
New PVSystem.PV_26_c phases=1 bus1=26.3 kv=7.199557856794634 irradiance = 1 kva=15.26 Pmpp=15.26 Vmaxpu=1.05 Vminpu=0.95 %cutin=0.001 %cutout=0.001
New PVSystem.PV_30_c phases=1 bus1=30.3 kv=7.199557856794634 irradiance = 1 kva=6.1000000000000005 Pmpp=6.1000000000000005 Vmaxpu=1.05 Vminpu=0.95 %cutin=0.001 %cutout=0.001
New PVSystem.PV_47_b phases=1 bus1=47.2 kv=7.199557856794634 irradiance = 1 kva=10.52 Pmpp=10.52 Vmaxpu=1.05 Vminpu=0.95 %cutin=0.001 %cutout=0.001
New PVSystem.PV_48_b phases=1 bus1=48.2 kv=7.199557856794634 irradiance = 1 kva=9.54 Pmpp=9.54 Vmaxpu=1.05 Vminpu=0.95 %cutin=0.001 %cutout=0.001
New PVSystem.PV_49_b phases=1 bus1=49.2 kv=7.199557856794634 irradiance = 1 kva=10.22 Pmpp=10.22 Vmaxpu=1.05 Vminpu=0.95 %cutin=0.001 %cutout=0.001
New PVSystem.PV_50_b phases=1 bus1=50.2 kv=7.199557856794634 irradiance = 1 kva=9.67 Pmpp=9.67 Vmaxpu=1.05 Vminpu=0.95 %cutin=0.001 %cutout=0.001
New PVSystem.PV_51_b phases=1 bus1=51.2 kv=7.199557856794634 irradiance = 1 kva=11.790000000000001 Pmpp=11.790000000000001 Vmaxpu=1.05 Vminpu=0.95 %cutin=0.001 %cutout=0.001
New PVSystem.PV_52_b phases=1 bus1=52.2 kv=7.199557856794634 irradiance = 1 kva=9.9 Pmpp=9.9 Vmaxpu=1.05 Vminpu=0.95 %cutin=0.001 %cutout=0.001
New PVSystem.PV_53_b phases=1 bus1=53.2 kv=7.199557856794634 irradiance = 1 kva=12.22 Pmpp=12.22 Vmaxpu=1.05 Vminpu=0.95 %cutin=0.001 %cutout=0.001
New PVSystem.PV_54_b phases=1 bus1=54.2 kv=7.199557856794634 irradiance = 1 kva=8.71 Pmpp=8.71 Vmaxpu=1.05 Vminpu=0.95 %cutin=0.001 %cutout=0.001
New PVSystem.PV_55_b phases=1 bus1=55.2 kv=7.199557856794634 irradiance = 1 kva=10.45 Pmpp=10.45 Vmaxpu=1.05 Vminpu=0.95 %cutin=0.001 %cutout=0.001
New PVSystem.PV_56_b phases=1 bus1=56.2 kv=7.199557856794634 irradiance = 1 kva=7.04 Pmpp=7.04 Vmaxpu=1.05 Vminpu=0.95 %cutin=0.001 %cutout=0.001
New PVSystem.PV_57_b phases=1 bus1=57.2 kv=7.199557856794634 irradiance = 1 kva=11.2 Pmpp=11.2 Vmaxpu=1.05 Vminpu=0.95 %cutin=0.001 %cutout=0.001
New PVSystem.PV_58_b phases=1 bus1=58.2 kv=7.199557856794634 irradiance = 1 kva=12.78 Pmpp=12.78 Vmaxpu=1.05 Vminpu=0.95 %cutin=0.001 %cutout=0.001
New PVSystem.PV_59_b phases=1 bus1=59.2 kv=7.199557856794634 irradiance = 1 kva=9.05 Pmpp=9.05 Vmaxpu=1.05 Vminpu=0.95 %cutin=0.001 %cutout=0.001
New PVSystem.PV_60_b phases=1 bus1=60.2 kv=7.199557856794634 irradiance = 1 kva=11.25 Pmpp=11.25 Vmaxpu=1.05 Vminpu=0.95 %cutin=0.001 %cutout=0.001
New PVSystem.PV_66_b phases=1 bus1=66.2 kv=7.199557856794634 irradiance = 1 kva=11.25 Pmpp=11.25 Vmaxpu=1.05 Vminpu=0.95 %cutin=0.001 %cutout=0.001
New PVSystem.PV_67_b phases=1 bus1=67.2 kv=7.199557856794634 irradiance = 1 kva=12.56 Pmpp=12.56 Vmaxpu=1.05 Vminpu=0.95 %cutin=0.001 %cutout=0.001
New PVSystem.PV_68_b phases=1 bus1=68.2 kv=7.199557856794634 irradiance = 1 kva=9.709999999999999 Pmpp=9.709999999999999 Vmaxpu=1.05 Vminpu=0.95 %cutin=0.001 %cutout=0.001
New PVSystem.PV_69_b phases=1 bus1=69.2 kv=7.199557856794634 irradiance = 1 kva=11.08 Pmpp=11.08 Vmaxpu=1.05 Vminpu=0.95 %cutin=0.001 %cutout=0.001
New PVSystem.PV_70_b phases=1 bus1=70.2 kv=7.199557856794634 irradiance = 1 kva=9.76 Pmpp=9.76 Vmaxpu=1.05 Vminpu=0.95 %cutin=0.001 %cutout=0.001
New PVSystem.PV_71_b phases=1 bus1=71.2 kv=7.199557856794634 irradiance = 1 kva=9.36 Pmpp=9.36 Vmaxpu=1.05 Vminpu=0.95 %cutin=0.001 %cutout=0.001
New PVSystem.PV_72_b phases=1 bus1=72.2 kv=7.199557856794634 irradiance = 1 kva=12.72 Pmpp=12.72 Vmaxpu=1.05 Vminpu=0.95 %cutin=0.001 %cutout=0.001
New PVSystem.PV_73_b phases=1 bus1=73.2 kv=7.199557856794634 irradiance = 1 kva=13.97 Pmpp=13.97 Vmaxpu=1.05 Vminpu=0.95 %cutin=0.001 %cutout=0.001
New PVSystem.PV_74_b phases=1 bus1=74.2 kv=7.199557856794634 irradiance = 1 kva=16.9 Pmpp=16.9 Vmaxpu=1.05 Vminpu=0.95 %cutin=0.001 %cutout=0.001
New PVSystem.PV_75_b phases=1 bus1=75.2 kv=7.199557856794634 irradiance = 1 kva=7.4799999999999995 Pmpp=7.4799999999999995 Vmaxpu=1.05 Vminpu=0.95 %cutin=0.001 %cutout=0.001
New PVSystem.PV_76_b phases=1 bus1=76.2 kv=7.199557856794634 irradiance = 1 kva=13.75 Pmpp=13.75 Vmaxpu=1.05 Vminpu=0.95 %cutin=0.001 %cutout=0.001
New PVSystem.PV_77_b phases=1 bus1=77.2 kv=7.199557856794634 irradiance = 1 kva=17.57 Pmpp=17.57 Vmaxpu=1.05 Vminpu=0.95 %cutin=0.001 %cutout=0.001
New PVSystem.PV_78_b phases=1 bus1=78.2 kv=7.199557856794634 irradiance = 1 kva=28.330000000000002 Pmpp=28.330000000000002 Vmaxpu=1.05 Vminpu=0.95 %cutin=0.001 %cutout=0.001
New PVSystem.PV_79_b phases=1 bus1=79.2 kv=7.199557856794634 irradiance = 1 kva=24.22 Pmpp=24.22 Vmaxpu=1.05 Vminpu=0.95 %cutin=0.001 %cutout=0.001
New PVSystem.PV_85_a phases=1 bus1=85.1 kv=7.199557856794634 irradiance = 1 kva=8.82 Pmpp=8.82 Vmaxpu=1.05 Vminpu=0.95 %cutin=0.001 %cutout=0.001
New PVSystem.PV_86_a phases=1 bus1=86.1 kv=7.199557856794634 irradiance = 1 kva=12.91 Pmpp=12.91 Vmaxpu=1.05 Vminpu=0.95 %cutin=0.001 %cutout=0.001
New PVSystem.PV_87_a phases=1 bus1=87.1 kv=7.199557856794634 irradiance = 1 kva=9.62 Pmpp=9.62 Vmaxpu=1.05 Vminpu=0.95 %cutin=0.001 %cutout=0.001
New PVSystem.PV_88_a phases=1 bus1=88.1 kv=7.199557856794634 irradiance = 1 kva=10.86 Pmpp=10.86 Vmaxpu=1.05 Vminpu=0.95 %cutin=0.001 %cutout=0.001
New PVSystem.PV_89_a phases=1 bus1=89.1 kv=7.199557856794634 irradiance = 1 kva=9.469999999999999 Pmpp=9.469999999999999 Vmaxpu=1.05 Vminpu=0.95 %cutin=0.001 %cutout=0.001
New PVSystem.PV_90_a phases=1 bus1=90.1 kv=7.199557856794634 irradiance = 1 kva=13.99 Pmpp=13.99 Vmaxpu=1.05 Vminpu=0.95 %cutin=0.001 %cutout=0.001
New PVSystem.PV_91_a phases=1 bus1=91.1 kv=7.199557856794634 irradiance = 1 kva=14.65 Pmpp=14.65 Vmaxpu=1.05 Vminpu=0.95 %cutin=0.001 %cutout=0.001
New PVSystem.PV_92_a phases=1 bus1=92.1 kv=7.199557856794634 irradiance = 1 kva=8.25 Pmpp=8.25 Vmaxpu=1.05 Vminpu=0.95 %cutin=0.001 %cutout=0.001
New PVSystem.PV_93_a phases=1 bus1=93.1 kv=7.199557856794634 irradiance = 1 kva=18.15 Pmpp=18.15 Vmaxpu=1.05 Vminpu=0.95 %cutin=0.001 %cutout=0.001
New PVSystem.PV_94_a phases=1 bus1=94.1 kv=7.199557856794634 irradiance = 1 kva=16.04 Pmpp=16.04 Vmaxpu=1.05 Vminpu=0.95 %cutin=0.001 %cutout=0.001
New PVSystem.PV_95_a phases=1 bus1=95.1 kv=7.199557856794634 irradiance = 1 kva=14.540000000000001 Pmpp=14.540000000000001 Vmaxpu=1.05 Vminpu=0.95 %cutin=0.001 %cutout=0.001
New PVSystem.PV_96_a phases=1 bus1=96.1 kv=7.199557856794634 irradiance = 1 kva=22.37 Pmpp=22.37 Vmaxpu=1.05 Vminpu=0.95 %cutin=0.001 %cutout=0.001
New PVSystem.PV_97_a phases=1 bus1=97.1 kv=7.199557856794634 irradiance = 1 kva=21.45 Pmpp=21.45 Vmaxpu=1.05 Vminpu=0.95 %cutin=0.001 %cutout=0.001
New PVSystem.PV_98_a phases=1 bus1=98.1 kv=7.199557856794634 irradiance = 1 kva=19.93 Pmpp=19.93 Vmaxpu=1.05 Vminpu=0.95 %cutin=0.001 %cutout=0.001
New PVSystem.PV_99_c phases=1 bus1=99.3 kv=7.199557856794634 irradiance = 1 kva=40.52 Pmpp=40.52 Vmaxpu=1.05 Vminpu=0.95 %cutin=0.001 %cutout=0.001
New PVSystem.PV_108_a phases=1 bus1=108.1 kv=0.27712812921102037 irradiance = 1 kva=83.3333333333333 Pmpp=16.6666666666666 Vmaxpu=1.05 Vminpu=0.95 %cutin=0.001 %cutout=0.001
New PVSystem.PV_108_b phases=1 bus1=108.2 kv=0.27712812921102037 irradiance = 1 kva=83.3333333333333 Pmpp=16.6666666666666 Vmaxpu=1.05 Vminpu=0.95 %cutin=0.001 %cutout=0.001
New PVSystem.PV_108_c phases=1 bus1=108.3 kv=0.27712812921102037 irradiance = 1 kva=83.3333333333333 Pmpp=16.6666666666666 Vmaxpu=1.05 Vminpu=0.95 %cutin=0.001 %cutout=0.001
New PVSystem.PV_115_c phases=1 bus1=115.3 kv=7.199557856794634 irradiance = 1 kva=12.43 Pmpp=12.43 Vmaxpu=1.05 Vminpu=0.95 %cutin=0.001 %cutout=0.001
New PVSystem.PV_116_c phases=1 bus1=116.3 kv=7.199557856794634 irradiance = 1 kva=16.02 Pmpp=16.02 Vmaxpu=1.05 Vminpu=0.95 %cutin=0.001 %cutout=0.001
New PVSystem.PV_117_c phases=1 bus1=117.3 kv=7.199557856794634 irradiance = 1 kva=12.95 Pmpp=12.95 Vmaxpu=1.05 Vminpu=0.95 %cutin=0.001 %cutout=0.001
New PVSystem.PV_118_c phases=1 bus1=118.3 kv=7.199557856794634 irradiance = 1 kva=8.56 Pmpp=8.56 Vmaxpu=1.05 Vminpu=0.95 %cutin=0.001 %cutout=0.001
New PVSystem.PV_119_c phases=1 bus1=119.3 kv=7.199557856794634 irradiance = 1 kva=10.53 Pmpp=10.53 Vmaxpu=1.05 Vminpu=0.95 %cutin=0.001 %cutout=0.001
New PVSystem.PV_120_c phases=1 bus1=120.3 kv=7.199557856794634 irradiance = 1 kva=8.85 Pmpp=8.85 Vmaxpu=1.05 Vminpu=0.95 %cutin=0.001 %cutout=0.001
New PVSystem.PV_121_c phases=1 bus1=121.3 kv=7.199557856794634 irradiance = 1 kva=11.889999999999999 Pmpp=11.889999999999999 Vmaxpu=1.05 Vminpu=0.95 %cutin=0.001 %cutout=0.001
New PVSystem.PV_122_c phases=1 bus1=122.3 kv=7.199557856794634 irradiance = 1 kva=13.93 Pmpp=13.93 Vmaxpu=1.05 Vminpu=0.95 %cutin=0.001 %cutout=0.001
New PVSystem.PV_123_c phases=1 bus1=123.3 kv=7.199557856794634 irradiance = 1 kva=13.440000000000001 Pmpp=13.440000000000001 Vmaxpu=1.05 Vminpu=0.95 %cutin=0.001 %cutout=0.001
New PVSystem.PV_124_c phases=1 bus1=124.3 kv=7.199557856794634 irradiance = 1 kva=23.419999999999998 Pmpp=23.419999999999998 Vmaxpu=1.05 Vminpu=0.95 %cutin=0.001 %cutout=0.001
New PVSystem.PV_125_c phases=1 bus1=125.3 kv=7.199557856794634 irradiance = 1 kva=17.88 Pmpp=17.88 Vmaxpu=1.05 Vminpu=0.95 %cutin=0.001 %cutout=0.001
New PVSystem.PV_126_c phases=1 bus1=126.3 kv=7.199557856794634 irradiance = 1 kva=18.08 Pmpp=18.08 Vmaxpu=1.05 Vminpu=0.95 %cutin=0.001 %cutout=0.001
New PVSystem.PV_127_c phases=1 bus1=127.3 kv=7.199557856794634 irradiance = 1 kva=16.87 Pmpp=16.87 Vmaxpu=1.05 Vminpu=0.95 %cutin=0.001 %cutout=0.001
New PVSystem.PV_128_c phases=1 bus1=128.3 kv=7.199557856794634 irradiance = 1 kva=21.39 Pmpp=21.39 Vmaxpu=1.05 Vminpu=0.95 %cutin=0.001 %cutout=0.001
New PVSystem.PV_131_c phases=1 bus1=131.3 kv=7.199557856794634 irradiance = 1 kva=11.25 Pmpp=11.25 Vmaxpu=1.05 Vminpu=0.95 %cutin=0.001 %cutout=0.001
New PVSystem.PV_132_c phases=1 bus1=132.3 kv=7.199557856794634 irradiance = 1 kva=12.56 Pmpp=12.56 Vmaxpu=1.05 Vminpu=0.95 %cutin=0.001 %cutout=0.001
New PVSystem.PV_133_c phases=1 bus1=133.3 kv=7.199557856794634 irradiance = 1 kva=9.709999999999999 Pmpp=9.709999999999999 Vmaxpu=1.05 Vminpu=0.95 %cutin=0.001 %cutout=0.001
New PVSystem.PV_134_c phases=1 bus1=134.3 kv=7.199557856794634 irradiance = 1 kva=11.25 Pmpp=11.25 Vmaxpu=1.05 Vminpu=0.95 %cutin=0.001 %cutout=0.001
New PVSystem.PV_135_c phases=1 bus1=135.3 kv=7.199557856794634 irradiance = 1 kva=11.25 Pmpp=11.25 Vmaxpu=1.05 Vminpu=0.95 %cutin=0.001 %cutout=0.001
New PVSystem.PV_136_c phases=1 bus1=136.3 kv=7.199557856794634 irradiance = 1 kva=11.25 Pmpp=11.25 Vmaxpu=1.05 Vminpu=0.95 %cutin=0.001 %cutout=0.001
New PVSystem.PV_137_c phases=1 bus1=137.3 kv=7.199557856794634 irradiance = 1 kva=11.25 Pmpp=11.25 Vmaxpu=1.05 Vminpu=0.95 %cutin=0.001 %cutout=0.001
New PVSystem.PV_138_c phases=1 bus1=138.3 kv=7.199557856794634 irradiance = 1 kva=11.25 Pmpp=11.25 Vmaxpu=1.05 Vminpu=0.95 %cutin=0.001 %cutout=0.001
New PVSystem.PV_139_c phases=1 bus1=139.3 kv=7.199557856794634 irradiance = 1 kva=11.25 Pmpp=11.25 Vmaxpu=1.05 Vminpu=0.95 %cutin=0.001 %cutout=0.001
New PVSystem.PV_140_c phases=1 bus1=140.3 kv=7.199557856794634 irradiance = 1 kva=11.25 Pmpp=11.25 Vmaxpu=1.05 Vminpu=0.95 %cutin=0.001 %cutout=0.001
New PVSystem.PV_141_c phases=1 bus1=141.3 kv=7.199557856794634 irradiance = 1 kva=11.25 Pmpp=11.25 Vmaxpu=1.05 Vminpu=0.95 %cutin=0.001 %cutout=0.001
New PVSystem.PV_142_c phases=1 bus1=142.3 kv=7.199557856794634 irradiance = 1 kva=11.25 Pmpp=11.25 Vmaxpu=1.05 Vminpu=0.95 %cutin=0.001 %cutout=0.001
New PVSystem.PV_143_c phases=1 bus1=143.3 kv=7.199557856794634 irradiance = 1 kva=11.25 Pmpp=11.25 Vmaxpu=1.05 Vminpu=0.95 %cutin=0.001 %cutout=0.001
New PVSystem.PV_144_c phases=1 bus1=144.3 kv=7.199557856794634 irradiance = 1 kva=11.25 Pmpp=11.25 Vmaxpu=1.05 Vminpu=0.95 %cutin=0.001 %cutout=0.001
New PVSystem.PV_147_a phases=1 bus1=147.1 kv=7.199557856794634 irradiance = 1 kva=11.25 Pmpp=11.25 Vmaxpu=1.05 Vminpu=0.95 %cutin=0.001 %cutout=0.001
New PVSystem.PV_148_a phases=1 bus1=148.1 kv=7.199557856794634 irradiance = 1 kva=12.56 Pmpp=12.56 Vmaxpu=1.05 Vminpu=0.95 %cutin=0.001 %cutout=0.001
New PVSystem.PV_149_a phases=1 bus1=149.1 kv=7.199557856794634 irradiance = 1 kva=9.709999999999999 Pmpp=9.709999999999999 Vmaxpu=1.05 Vminpu=0.95 %cutin=0.001 %cutout=0.001
New PVSystem.PV_150_a phases=1 bus1=150.1 kv=7.199557856794634 irradiance = 1 kva=14.93 Pmpp=14.93 Vmaxpu=1.05 Vminpu=0.95 %cutin=0.001 %cutout=0.001
New PVSystem.PV_151_a phases=1 bus1=151.1 kv=7.199557856794634 irradiance = 1 kva=12.6 Pmpp=12.6 Vmaxpu=1.05 Vminpu=0.95 %cutin=0.001 %cutout=0.001
New PVSystem.PV_152_a phases=1 bus1=152.1 kv=7.199557856794634 irradiance = 1 kva=11.92 Pmpp=11.92 Vmaxpu=1.05 Vminpu=0.95 %cutin=0.001 %cutout=0.001
New PVSystem.PV_153_a phases=1 bus1=153.1 kv=7.199557856794634 irradiance = 1 kva=12.44 Pmpp=12.44 Vmaxpu=1.05 Vminpu=0.95 %cutin=0.001 %cutout=0.001
New PVSystem.PV_154_a phases=1 bus1=154.1 kv=7.199557856794634 irradiance = 1 kva=12.98 Pmpp=12.98 Vmaxpu=1.05 Vminpu=0.95 %cutin=0.001 %cutout=0.001
New PVSystem.PV_155_a phases=1 bus1=155.1 kv=7.199557856794634 irradiance = 1 kva=14.49 Pmpp=14.49 Vmaxpu=1.05 Vminpu=0.95 %cutin=0.001 %cutout=0.001
New PVSystem.PV_156_a phases=1 bus1=156.1 kv=7.199557856794634 irradiance = 1 kva=9.979999999999999 Pmpp=9.979999999999999 Vmaxpu=1.05 Vminpu=0.95 %cutin=0.001 %cutout=0.001
New PVSystem.PV_157_a phases=1 bus1=157.1 kv=7.199557856794634 irradiance = 1 kva=19.619999999999997 Pmpp=19.619999999999997 Vmaxpu=1.05 Vminpu=0.95 %cutin=0.001 %cutout=0.001
New PVSystem.PV_158_a phases=1 bus1=158.1 kv=7.199557856794634 irradiance = 1 kva=10.63 Pmpp=10.63 Vmaxpu=1.05 Vminpu=0.95 %cutin=0.001 %cutout=0.001
New PVSystem.PV_159_a phases=1 bus1=159.1 kv=7.199557856794634 irradiance = 1 kva=10.59 Pmpp=10.59 Vmaxpu=1.05 Vminpu=0.95 %cutin=0.001 %cutout=0.001
New PVSystem.PV_160_a phases=1 bus1=160.1 kv=7.199557856794634 irradiance = 1 kva=10.77 Pmpp=10.77 Vmaxpu=1.05 Vminpu=0.95 %cutin=0.001 %cutout=0.001
New PVSystem.PV_181_b phases=1 bus1=181.2 kv=7.199557856794634 irradiance = 1 kva=5.84 Pmpp=5.84 Vmaxpu=1.05 Vminpu=0.95 %cutin=0.001 %cutout=0.001
New PVSystem.PV_244_a phases=1 bus1=244.1 kv=7.199557856794634 irradiance = 1 kva=5.32 Pmpp=5.32 Vmaxpu=1.05 Vminpu=0.95 %cutin=0.001 %cutout=0.001
New PVSystem.PV_248_a phases=1 bus1=248.1 kv=7.199557856794634 irradiance = 1 kva=8.87 Pmpp=8.87 Vmaxpu=1.05 Vminpu=0.95 %cutin=0.001 %cutout=0.001
New PVSystem.PV_263_c phases=1 bus1=263.3 kv=7.199557856794634 irradiance = 1 kva=10.17 Pmpp=10.17 Vmaxpu=1.05 Vminpu=0.95 %cutin=0.001 %cutout=0.001
New PVSystem.PV_296_c phases=1 bus1=296.3 kv=7.199557856794634 irradiance = 1 kva=10.17 Pmpp=10.17 Vmaxpu=1.05 Vminpu=0.95 %cutin=0.001 %cutout=0.001
New PVSystem.PV_305_b phases=1 bus1=305.2 kv=7.199557856794634 irradiance = 1 kva=9.73 Pmpp=9.73 Vmaxpu=1.05 Vminpu=0.95 %cutin=0.001 %cutout=0.001
New PVSystem.PV_362_c phases=1 bus1=362.3 kv=7.199557856794634 irradiance = 1 kva=4.069999999999999 Pmpp=4.069999999999999 Vmaxpu=1.05 Vminpu=0.95 %cutin=0.001 %cutout=0.001
New PVSystem.PV_395_b phases=1 bus1=395.2 kv=7.199557856794634 irradiance = 1 kva=3.8899999999999997 Pmpp=3.8899999999999997 Vmaxpu=1.05 Vminpu=0.95 %cutin=0.001 %cutout=0.001
New PVSystem.PV_416_b phases=1 bus1=416.2 kv=7.199557856794634 irradiance = 1 kva=5.8500000000000005 Pmpp=5.8500000000000005 Vmaxpu=1.05 Vminpu=0.95 %cutin=0.001 %cutout=0.001
New PVSystem.PV_439_c phases=1 bus1=439.3 kv=7.199557856794634 irradiance = 1 kva=10.17 Pmpp=10.17 Vmaxpu=1.05 Vminpu=0.95 %cutin=0.001 %cutout=0.001
New PVSystem.PV_467_a phases=1 bus1=467.1 kv=7.199557856794634 irradiance = 1 kva=5.32 Pmpp=5.32 Vmaxpu=1.05 Vminpu=0.95 %cutin=0.001 %cutout=0.001
New PVSystem.PV_530_b phases=1 bus1=530.2 kv=7.199557856794634 irradiance = 1 kva=14.59 Pmpp=14.59 Vmaxpu=1.05 Vminpu=0.95 %cutin=0.001 %cutout=0.001
New PVSystem.PV_575_c phases=1 bus1=575.3 kv=7.199557856794634 irradiance = 1 kva=20.34 Pmpp=20.34 Vmaxpu=1.05 Vminpu=0.95 %cutin=0.001 %cutout=0.001
New PVSystem.PV_642_a phases=1 bus1=642.1 kv=7.199557856794634 irradiance = 1 kva=6.1000000000000005 Pmpp=6.1000000000000005 Vmaxpu=1.05 Vminpu=0.95 %cutin=0.001 %cutout=0.001
New PVSystem.PV_673_c phases=1 bus1=673.3 kv=7.199557856794634 irradiance = 1 kva=6.1000000000000005 Pmpp=6.1000000000000005 Vmaxpu=1.05 Vminpu=0.95 %cutin=0.001 %cutout=0.001
New PVSystem.PV_676_c phases=1 bus1=676.3 kv=7.199557856794634 irradiance = 1 kva=6.1000000000000005 Pmpp=6.1000000000000005 Vmaxpu=1.05 Vminpu=0.95 %cutin=0.001 %cutout=0.001
New PVSystem.PV_688_a phases=1 bus1=688.1 kv=0.27712812921102037 irradiance = 1 kva=25.0 Pmpp=6.6666666666666 Vmaxpu=1.05 Vminpu=0.95 %cutin=0.001 %cutout=0.001
New PVSystem.PV_688_b phases=1 bus1=688.2 kv=0.27712812921102037 irradiance = 1 kva=25.0 Pmpp=6.6666666666666 Vmaxpu=1.05 Vminpu=0.95 %cutin=0.001 %cutout=0.001
New PVSystem.PV_688_c phases=1 bus1=688.3 kv=0.27712812921102037 irradiance = 1 kva=25.0 Pmpp=6.6666666666666 Vmaxpu=1.05 Vminpu=0.95 %cutin=0.001 %cutout=0.001
New PVSystem.PV_690_a phases=1 bus1=690.1 kv=0.27712812921102037 irradiance = 1 kva=25.0 Pmpp=6.6666666666666 Vmaxpu=1.05 Vminpu=0.95 %cutin=0.001 %cutout=0.001
New PVSystem.PV_690_b phases=1 bus1=690.2 kv=0.27712812921102037 irradiance = 1 kva=25.0 Pmpp=6.6666666666666 Vmaxpu=1.05 Vminpu=0.95 %cutin=0.001 %cutout=0.001
New PVSystem.PV_690_c phases=1 bus1=690.3 kv=0.27712812921102037 irradiance = 1 kva=25.0 Pmpp=6.6666666666666 Vmaxpu=1.05 Vminpu=0.95 %cutin=0.001 %cutout=0.001
New PVSystem.PV_692_a phases=1 bus1=692.1 kv=0.27712812921102037 irradiance = 1 kva=25.0 Pmpp=6.6666666666666 Vmaxpu=1.05 Vminpu=0.95 %cutin=0.001 %cutout=0.001
New PVSystem.PV_692_b phases=1 bus1=692.2 kv=0.27712812921102037 irradiance = 1 kva=25.0 Pmpp=6.6666666666666 Vmaxpu=1.05 Vminpu=0.95 %cutin=0.001 %cutout=0.001
New PVSystem.PV_692_c phases=1 bus1=692.3 kv=0.27712812921102037 irradiance = 1 kva=25.0 Pmpp=6.6666666666666 Vmaxpu=1.05 Vminpu=0.95 %cutin=0.001 %cutout=0.001
New PVSystem.PV_710_c phases=1 bus1=710.3 kv=7.199557856794634 irradiance = 1 kva=6.1000000000000005 Pmpp=6.1000000000000005 Vmaxpu=1.05 Vminpu=0.95 %cutin=0.001 %cutout=0.001
New PVSystem.PV_720_a phases=1 bus1=720.1 kv=7.199557856794634 irradiance = 1 kva=5.33 Pmpp=5.33 Vmaxpu=1.05 Vminpu=0.95 %cutin=0.001 %cutout=0.001
New PVSystem.PV_731_c phases=1 bus1=731.3 kv=7.199557856794634 irradiance = 1 kva=10.17 Pmpp=10.17 Vmaxpu=1.05 Vminpu=0.95 %cutin=0.001 %cutout=0.001
New PVSystem.PV_751_c phases=1 bus1=751.3 kv=7.199557856794634 irradiance = 1 kva=6.1000000000000005 Pmpp=6.1000000000000005 Vmaxpu=1.05 Vminpu=0.95 %cutin=0.001 %cutout=0.001
New PVSystem.PV_785_b phases=1 bus1=785.2 kv=7.199557856794634 irradiance = 1 kva=5.84 Pmpp=5.84 Vmaxpu=1.05 Vminpu=0.95 %cutin=0.001 %cutout=0.001
New PVSystem.PV_792_a phases=1 bus1=792.1 kv=7.199557856794634 irradiance = 1 kva=13.299999999999999 Pmpp=13.299999999999999 Vmaxpu=1.05 Vminpu=0.95 %cutin=0.001 %cutout=0.001
New PVSystem.PV_794_c phases=1 bus1=794.3 kv=7.199557856794634 irradiance = 1 kva=6.1000000000000005 Pmpp=6.1000000000000005 Vmaxpu=1.05 Vminpu=0.95 %cutin=0.001 %cutout=0.001
New PVSystem.PV_802_a phases=1 bus1=802.1 kv=7.199557856794634 irradiance = 1 kva=17.74 Pmpp=17.74 Vmaxpu=1.05 Vminpu=0.95 %cutin=0.001 %cutout=0.001
New PVSystem.PV_806_a phases=1 bus1=806.1 kv=7.199557856794634 irradiance = 1 kva=17.74 Pmpp=17.74 Vmaxpu=1.05 Vminpu=0.95 %cutin=0.001 %cutout=0.001
New PVSystem.PV_825_b phases=1 bus1=825.2 kv=7.199557856794634 irradiance = 1 kva=14.59 Pmpp=14.59 Vmaxpu=1.05 Vminpu=0.95 %cutin=0.001 %cutout=0.001
New PVSystem.PV_846_a phases=1 bus1=846.1 kv=7.199557856794634 irradiance = 1 kva=17.74 Pmpp=17.74 Vmaxpu=1.05 Vminpu=0.95 %cutin=0.001 %cutout=0.001
New PVSystem.PV_846_c phases=1 bus1=846.3 kv=7.199557856794634 irradiance = 1 kva=20.34 Pmpp=20.34 Vmaxpu=1.05 Vminpu=0.95 %cutin=0.001 %cutout=0.001
New PVSystem.PV_869_c phases=1 bus1=869.3 kv=7.199557856794634 irradiance = 1 kva=6.1000000000000005 Pmpp=6.1000000000000005 Vmaxpu=1.05 Vminpu=0.95 %cutin=0.001 %cutout=0.001
New PVSystem.PV_926_c phases=1 bus1=926.3 kv=7.199557856794634 irradiance = 1 kva=10.17 Pmpp=10.17 Vmaxpu=1.05 Vminpu=0.95 %cutin=0.001 %cutout=0.001
New PVSystem.PV_952_c phases=1 bus1=952.3 kv=7.199557856794634 irradiance = 1 kva=10.17 Pmpp=10.17 Vmaxpu=1.05 Vminpu=0.95 %cutin=0.001 %cutout=0.001
New PVSystem.PV_970_c phases=1 bus1=970.3 kv=7.199557856794634 irradiance = 1 kva=10.17 Pmpp=10.17 Vmaxpu=1.05 Vminpu=0.95 %cutin=0.001 %cutout=0.001
New PVSystem.PV_1004_b phases=1 bus1=1004.2 kv=7.199557856794634 irradiance = 1 kva=5.84 Pmpp=5.84 Vmaxpu=1.05 Vminpu=0.95 %cutin=0.001 %cutout=0.001
New PVSystem.PV_1027_b phases=1 bus1=1027.2 kv=7.199557856794634 irradiance = 1 kva=9.73 Pmpp=9.73 Vmaxpu=1.05 Vminpu=0.95 %cutin=0.001 %cutout=0.001
New PVSystem.PV_1061_a phases=1 bus1=1061.1 kv=7.199557856794634 irradiance = 1 kva=5.32 Pmpp=5.32 Vmaxpu=1.05 Vminpu=0.95 %cutin=0.001 %cutout=0.001
New PVSystem.PV_1063_a phases=1 bus1=1063.1 kv=7.199557856794634 irradiance = 1 kva=5.32 Pmpp=5.32 Vmaxpu=1.05 Vminpu=0.95 %cutin=0.001 %cutout=0.001
New PVSystem.PV_1064_a phases=1 bus1=1064.1 kv=7.199557856794634 irradiance = 1 kva=5.32 Pmpp=5.32 Vmaxpu=1.05 Vminpu=0.95 %cutin=0.001 %cutout=0.001
New PVSystem.PV_1091_a phases=1 bus1=1091.1 kv=7.199557856794634 irradiance = 1 kva=5.32 Pmpp=5.32 Vmaxpu=1.05 Vminpu=0.95 %cutin=0.001 %cutout=0.001
New PVSystem.PV_1098_a phases=1 bus1=1098.1 kv=7.199557856794634 irradiance = 1 kva=5.32 Pmpp=5.32 Vmaxpu=1.05 Vminpu=0.95 %cutin=0.001 %cutout=0.001
New PVSystem.PV_1102_a phases=1 bus1=1102.1 kv=7.199557856794634 irradiance = 1 kva=8.87 Pmpp=8.87 Vmaxpu=1.05 Vminpu=0.95 %cutin=0.001 %cutout=0.001
New PVSystem.PV_1122_a phases=1 bus1=1122.1 kv=7.199557856794634 irradiance = 1 kva=5.32 Pmpp=5.32 Vmaxpu=1.05 Vminpu=0.95 %cutin=0.001 %cutout=0.001
New PVSystem.PV_1301_a phases=1 bus1=1301.1 kv=7.199557856794634 irradiance = 1 kva=5.32 Pmpp=5.32 Vmaxpu=1.05 Vminpu=0.95 %cutin=0.001 %cutout=0.001
New PVSystem.PV_1302_a phases=1 bus1=1302.1 kv=7.199557856794634 irradiance = 1 kva=8.87 Pmpp=8.87 Vmaxpu=1.05 Vminpu=0.95 %cutin=0.001 %cutout=0.001
New PVSystem.PV_1305_a phases=1 bus1=1305.1 kv=7.199557856794634 irradiance = 1 kva=3.5500000000000003 Pmpp=3.5500000000000003 Vmaxpu=1.05 Vminpu=0.95 %cutin=0.001 %cutout=0.001
New PVSystem.PV_1405_b phases=1 bus1=1405.2 kv=7.199557856794634 irradiance = 1 kva=5.84 Pmpp=5.84 Vmaxpu=1.05 Vminpu=0.95 %cutin=0.001 %cutout=0.001
New PVSystem.PV_1418_a phases=1 bus1=1418.1 kv=7.199557856794634 irradiance = 1 kva=8.87 Pmpp=8.87 Vmaxpu=1.05 Vminpu=0.95 %cutin=0.001 %cutout=0.001
New PVSystem.PV_1476_a phases=1 bus1=1476.1 kv=7.199557856794634 irradiance = 1 kva=8.87 Pmpp=8.87 Vmaxpu=1.05 Vminpu=0.95 %cutin=0.001 %cutout=0.001
New PVSystem.PV_1510_b phases=1 bus1=1510.2 kv=7.199557856794634 irradiance = 1 kva=5.84 Pmpp=5.84 Vmaxpu=1.05 Vminpu=0.95 %cutin=0.001 %cutout=0.001
New PVSystem.PV_1534_b phases=1 bus1=1534.2 kv=7.199557856794634 irradiance = 1 kva=5.84 Pmpp=5.84 Vmaxpu=1.05 Vminpu=0.95 %cutin=0.001 %cutout=0.001
New PVSystem.PV_1537_b phases=1 bus1=1537.2 kv=7.199557856794634 irradiance = 1 kva=9.73 Pmpp=9.73 Vmaxpu=1.05 Vminpu=0.95 %cutin=0.001 %cutout=0.001
New PVSystem.PV_1560_b phases=1 bus1=1560.2 kv=7.199557856794634 irradiance = 1 kva=5.84 Pmpp=5.84 Vmaxpu=1.05 Vminpu=0.95 %cutin=0.001 %cutout=0.001
New PVSystem.PV_1567_b phases=1 bus1=1567.2 kv=7.199557856794634 irradiance = 1 kva=19.45 Pmpp=19.45 Vmaxpu=1.05 Vminpu=0.95 %cutin=0.001 %cutout=0.001
New PVSystem.PV_1580_a phases=1 bus1=1580.1 kv=7.199557856794634 irradiance = 1 kva=3.5500000000000003 Pmpp=3.5500000000000003 Vmaxpu=1.05 Vminpu=0.95 %cutin=0.001 %cutout=0.001
New PVSystem.PV_1587_a phases=1 bus1=1587.1 kv=7.199557856794634 irradiance = 1 kva=8.87 Pmpp=8.87 Vmaxpu=1.05 Vminpu=0.95 %cutin=0.001 %cutout=0.001
New PVSystem.PV_1623_c phases=1 bus1=1623.3 kv=7.199557856794634 irradiance = 1 kva=10.17 Pmpp=10.17 Vmaxpu=1.05 Vminpu=0.95 %cutin=0.001 %cutout=0.001
New PVSystem.PV_1626_a phases=1 bus1=1626.1 kv=7.199557856794634 irradiance = 1 kva=500.0 Pmpp=333.3333333333333 Vmaxpu=1.05 Vminpu=0.95 %cutin=0.001 %cutout=0.001
New PVSystem.PV_1626_b phases=1 bus1=1626.2 kv=7.199557856794634 irradiance = 1 kva=500.0 Pmpp=333.3333333333333 Vmaxpu=1.05 Vminpu=0.95 %cutin=0.001 %cutout=0.001
New PVSystem.PV_1626_c phases=1 bus1=1626.3 kv=7.199557856794634 irradiance = 1 kva=500.0 Pmpp=333.3333333333333 Vmaxpu=1.05 Vminpu=0.95 %cutin=0.001 %cutout=0.001
New PVSystem.PV_1675_b phases=1 bus1=1675.2 kv=7.199557856794634 irradiance = 1 kva=14.59 Pmpp=14.59 Vmaxpu=1.05 Vminpu=0.95 %cutin=0.001 %cutout=0.001
New PVSystem.PV_1707_c phases=1 bus1=1707.3 kv=7.199557856794634 irradiance = 1 kva=10.17 Pmpp=10.17 Vmaxpu=1.05 Vminpu=0.95 %cutin=0.001 %cutout=0.001
New PVSystem.PV_1734_a phases=1 bus1=1734.1 kv=7.199557856794634 irradiance = 1 kva=13.299999999999999 Pmpp=13.299999999999999 Vmaxpu=1.05 Vminpu=0.95 %cutin=0.001 %cutout=0.001
New PVSystem.PV_1779_a phases=1 bus1=1779.1 kv=7.199557856794634 irradiance = 1 kva=5.32 Pmpp=5.32 Vmaxpu=1.05 Vminpu=0.95 %cutin=0.001 %cutout=0.001
New PVSystem.PV_2084_a phases=1 bus1=2084.1 kv=7.199557856794634 irradiance = 1 kva=1333.3333333333333 Pmpp=333.3333333333333 Vmaxpu=1.05 Vminpu=0.95 %cutin=0.001 %cutout=0.001
New PVSystem.PV_2084_b phases=1 bus1=2084.2 kv=7.199557856794634 irradiance = 1 kva=1333.3333333333333 Pmpp=333.3333333333333 Vmaxpu=1.05 Vminpu=0.95 %cutin=0.001 %cutout=0.001
New PVSystem.PV_2084_c phases=1 bus1=2084.3 kv=7.199557856794634 irradiance = 1 kva=1333.3333333333333 Pmpp=333.3333333333333 Vmaxpu=1.05 Vminpu=0.95 %cutin=0.001 %cutout=0.001
New PVSystem.PV_2327_c phases=1 bus1=2327.3 kv=7.199557856794634 irradiance = 1 kva=6.1000000000000005 Pmpp=6.1000000000000005 Vmaxpu=1.05 Vminpu=0.95 %cutin=0.001 %cutout=0.001
New PVSystem.PV_2383_c phases=1 bus1=2383.3 kv=7.199557856794634 irradiance = 1 kva=6.1000000000000005 Pmpp=6.1000000000000005 Vmaxpu=1.05 Vminpu=0.95 %cutin=0.001 %cutout=0.001
New PVSystem.PV_2387_a phases=1 bus1=2387.1 kv=7.199557856794634 irradiance = 1 kva=17.74 Pmpp=17.74 Vmaxpu=1.05 Vminpu=0.95 %cutin=0.001 %cutout=0.001
New PVSystem.PV_2387_c phases=1 bus1=2387.3 kv=7.199557856794634 irradiance = 1 kva=20.34 Pmpp=20.34 Vmaxpu=1.05 Vminpu=0.95 %cutin=0.001 %cutout=0.001
New PVSystem.PV_2407_a phases=1 bus1=2407.1 kv=7.199557856794634 irradiance = 1 kva=5.32 Pmpp=5.32 Vmaxpu=1.05 Vminpu=0.95 %cutin=0.001 %cutout=0.001
New PVSystem.PV_2414_a phases=1 bus1=2414.1 kv=7.199557856794634 irradiance = 1 kva=8.87 Pmpp=8.87 Vmaxpu=1.05 Vminpu=0.95 %cutin=0.001 %cutout=0.001
New PVSystem.PV_2426_c phases=1 bus1=2426.3 kv=7.199557856794634 irradiance = 1 kva=10.17 Pmpp=10.17 Vmaxpu=1.05 Vminpu=0.95 %cutin=0.001 %cutout=0.001
New PVSystem.PV_2438_a phases=1 bus1=2438.1 kv=7.199557856794634 irradiance = 1 kva=30.52 Pmpp=30.52 Vmaxpu=1.05 Vminpu=0.95 %cutin=0.001 %cutout=0.001
New PVSystem.PV_2468_b phases=1 bus1=2468.2 kv=7.199557856794634 irradiance = 1 kva=6.1000000000000005 Pmpp=6.1000000000000005 Vmaxpu=1.05 Vminpu=0.95 %cutin=0.001 %cutout=0.001
New PVSystem.PV_2475_a phases=1 bus1=2475.1 kv=0.27712812921102037 irradiance = 1 kva=83.3333333333333 Pmpp=33.3333333333333 Vmaxpu=1.05 Vminpu=0.95 %cutin=0.001 %cutout=0.001
New PVSystem.PV_2475_b phases=1 bus1=2475.2 kv=0.27712812921102037 irradiance = 1 kva=83.3333333333333 Pmpp=33.3333333333333 Vmaxpu=1.05 Vminpu=0.95 %cutin=0.001 %cutout=0.001
New PVSystem.PV_2475_c phases=1 bus1=2475.3 kv=0.27712812921102037 irradiance = 1 kva=83.3333333333333 Pmpp=33.3333333333333 Vmaxpu=1.05 Vminpu=0.95 %cutin=0.001 %cutout=0.001
New PVSystem.PV_2483_c phases=1 bus1=2483.3 kv=7.199557856794634 irradiance = 1 kva=4.069999999999999 Pmpp=4.069999999999999 Vmaxpu=1.05 Vminpu=0.95 %cutin=0.001 %cutout=0.001
New PVSystem.PV_2486_c phases=1 bus1=2486.3 kv=7.199557856794634 irradiance = 1 kva=10.17 Pmpp=10.17 Vmaxpu=1.05 Vminpu=0.95 %cutin=0.001 %cutout=0.001
New PVSystem.PV_2497_c phases=1 bus1=2497.3 kv=7.199557856794634 irradiance = 1 kva=4.069999999999999 Pmpp=4.069999999999999 Vmaxpu=1.05 Vminpu=0.95 %cutin=0.001 %cutout=0.001
New PVSystem.PV_2500_c phases=1 bus1=2500.3 kv=7.199557856794634 irradiance = 1 kva=4.069999999999999 Pmpp=4.069999999999999 Vmaxpu=1.05 Vminpu=0.95 %cutin=0.001 %cutout=0.001
New PVSystem.PV_2503_c phases=1 bus1=2503.3 kv=7.199557856794634 irradiance = 1 kva=10.17 Pmpp=10.17 Vmaxpu=1.05 Vminpu=0.95 %cutin=0.001 %cutout=0.001
New PVSystem.PV_2538_a phases=1 bus1=2538.1 kv=7.199557856794634 irradiance = 1 kva=8.87 Pmpp=8.87 Vmaxpu=1.05 Vminpu=0.95 %cutin=0.001 %cutout=0.001
New PVSystem.PV_2548_a phases=1 bus1=2548.1 kv=7.199557856794634 irradiance = 1 kva=8.87 Pmpp=8.87 Vmaxpu=1.05 Vminpu=0.95 %cutin=0.001 %cutout=0.001
New PVSystem.PV_2554_c phases=1 bus1=2554.3 kv=7.199557856794634 irradiance = 1 kva=10.17 Pmpp=10.17 Vmaxpu=1.05 Vminpu=0.95 %cutin=0.001 %cutout=0.001
New PVSystem.PV_2563_b phases=1 bus1=2563.2 kv=7.199557856794634 irradiance = 1 kva=19.45 Pmpp=19.45 Vmaxpu=1.05 Vminpu=0.95 %cutin=0.001 %cutout=0.001
New PVSystem.PV_2578_c phases=1 bus1=2578.3 kv=7.199557856794634 irradiance = 1 kva=6.1000000000000005 Pmpp=6.1000000000000005 Vmaxpu=1.05 Vminpu=0.95 %cutin=0.001 %cutout=0.001
New PVSystem.PV_2610_b phases=1 bus1=2610.2 kv=7.199557856794634 irradiance = 1 kva=9.73 Pmpp=9.73 Vmaxpu=1.05 Vminpu=0.95 %cutin=0.001 %cutout=0.001
New PVSystem.PV_2615_b phases=1 bus1=2615.2 kv=7.199557856794634 irradiance = 1 kva=9.73 Pmpp=9.73 Vmaxpu=1.05 Vminpu=0.95 %cutin=0.001 %cutout=0.001
New PVSystem.PV_2622_a phases=1 bus1=2622.1 kv=7.199557856794634 irradiance = 1 kva=8.87 Pmpp=8.87 Vmaxpu=1.05 Vminpu=0.95 %cutin=0.001 %cutout=0.001
New PVSystem.PV_2633_c phases=1 bus1=2633.3 kv=7.199557856794634 irradiance = 1 kva=10.17 Pmpp=10.17 Vmaxpu=1.05 Vminpu=0.95 %cutin=0.001 %cutout=0.001
New PVSystem.PV_2644_a phases=1 bus1=2644.1 kv=7.199557856794634 irradiance = 1 kva=8.87 Pmpp=8.87 Vmaxpu=1.05 Vminpu=0.95 %cutin=0.001 %cutout=0.001
New PVSystem.PV_2659_c phases=1 bus1=2659.3 kv=7.199557856794634 irradiance = 1 kva=6.1000000000000005 Pmpp=6.1000000000000005 Vmaxpu=1.05 Vminpu=0.95 %cutin=0.001 %cutout=0.001
New PVSystem.PV_2660_c phases=1 bus1=2660.3 kv=7.199557856794634 irradiance = 1 kva=6.1000000000000005 Pmpp=6.1000000000000005 Vmaxpu=1.05 Vminpu=0.95 %cutin=0.001 %cutout=0.001
New PVSystem.PV_2681_c phases=1 bus1=2681.3 kv=7.199557856794634 irradiance = 1 kva=4.069999999999999 Pmpp=4.069999999999999 Vmaxpu=1.05 Vminpu=0.95 %cutin=0.001 %cutout=0.001
New PVSystem.PV_2695_a phases=1 bus1=2695.1 kv=7.199557856794634 irradiance = 1 kva=8.87 Pmpp=8.87 Vmaxpu=1.05 Vminpu=0.95 %cutin=0.001 %cutout=0.001
New PVSystem.PV_2705_c phases=1 bus1=2705.3 kv=7.199557856794634 irradiance = 1 kva=6.1000000000000005 Pmpp=6.1000000000000005 Vmaxpu=1.05 Vminpu=0.95 %cutin=0.001 %cutout=0.001
New PVSystem.PV_2713_a phases=1 bus1=2713.1 kv=7.199557856794634 irradiance = 1 kva=8.87 Pmpp=8.87 Vmaxpu=1.05 Vminpu=0.95 %cutin=0.001 %cutout=0.001
New PVSystem.PV_2746_a phases=1 bus1=2746.1 kv=7.199557856794634 irradiance = 1 kva=5.32 Pmpp=5.32 Vmaxpu=1.05 Vminpu=0.95 %cutin=0.001 %cutout=0.001
